/*--------------------------------*- C++ -*----------------------------------*\
| =========                 |                                                 |
| \\      /  F ield         | OpenFOAM: The Open Source CFD Toolbox           |
|  \\    /   O peration     | Version:  v1912                                 |
|   \\  /    A nd           | Website:  www.openfoam.com                      |
|    \\/     M anipulation  |                                                 |
\*---------------------------------------------------------------------------*/
FoamFile
{
    version     2.0;
    format      ascii;
    class       dictionary;
    object      fvSolution;
}
// * * * * * * * * * * * * * * * * * * * * * * * * * * * * * * * * * * * * * //

solvers
{
    cellDisplacement
    {
        solver          PCG;
        preconditioner  DIC;

        tolerance       1e-08;
        relTol          0;
        //maxIter         100;
        //maxIter		3; //new
    }
    p
    {
        solver          PBiCGStab;
        preconditioner  FDIC;
        tolerance       1e-4;
        relTol          0.1;
		minIter 1;
		//maxIter		20;
		maxIter		3; //new
    }
    
    yPsi
	{
    	solver          PBiCGStab;
        preconditioner  FDIC;
        tolerance       1e-5;
        relTol          0;
        maxIter		3; //new
	}

    pFinal
    {
        relTol 0.01;
        $p;
        maxIter		3; //new

    }

    pcorr
    {
        $p;
        solver          PCG;
        preconditioner  DIC;
        maxIter		3; //new
    }

    pcorrFinal
    {
        $pcorr;
        relTol          0;
        maxIter		3; //new
    }

    "(U|k|omega)"
    {
        solver          smoothSolver;
        smoother        symGaussSeidel;
        tolerance       1e-6;
        relTol          0;
        minIter     1;
        maxIter		3; //new
    }

    "(U|k|omega)Final"
    {
        $U;
        tolerance       1e-6;
        relTol          0;
        maxIter		3; //new
    }
}

PIMPLE
{

    correctPhi          false;		//D off in overset - Requires fluxRequired in fvSchemes for pcorr
    oversetAdjustPhi    false;		//D off - Only in overset
    nOuterCorrectors    4;
    nCorrectors         3;
    nNonOrthogonalCorrectors 2;
    checkMeshCourantNo	 yes;
    turbOnFinalIterOnly no;
    consistent		 true;



}

relaxationFactors
{   
    fields
    {
        p               0.3;
        pFinal          0.9;
    }
    equations
    {
        "(U|k|omega|yWall|pcorr|yPsi)"             0.7; 
        "(U|k|omega|yWall|pcorr|yPsi)Final"        0.9;
    }
}

/*
relaxationFactors
{
    fields
    {
        p               0.95;
        pFinal          1.0;
    }
    equations
    {
        "(U)"   0.95;
        "(U)Final" 1;
        "(k|omega|gammaInt|ReThetat)"   1;
        yWall       0.7;
        "(k|omega|yWall|gammaInt|ReThetat)Final"   1.0;
    }
}*/

// ************************************************************************* //
