FoamFile
{
    version     2.0;
    format      ascii;
    class       dictionary;
    location    "system";
    object      preciceDict;
}

preciceConfig "../precice-config.xml";

participant Fluid;

modules (FSI);

interfaces
{
  Interface1
  {
    mesh              Fluid-Mesh-Hole1;
    patches           (airfoilUp);
    locations         faceNodes;
    
    readData
    (
      Displacement_Hole1
    );
    
    writeData
    (
      Force_Hole1
    );
  };
  Interface2
  {
    mesh              Fluid-Mesh-Hole2;
    patches           (airfoilDown);
    locations         faceNodes;
    
    readData
    (
      Displacement_Hole2
    );
    
    writeData
    (
      Force_Hole2
    );
  };
};

FSI
{
  rho rho [1 -3 0 0 0 0 0] 1;
  nu nu [ 0 2 -1 0 0 0 0 ] 1e-03;
}
